/*--------------------------------*- C++ -*----------------------------------*\
| =========                 |                                                 |
| \\      /  F ield         | OpenFOAM: The Open Source CFD Toolbox           |
|  \\    /   O peration     | Version:  2206                                  |
|   \\  /    A nd           | Website:  www.openfoam.com                      |
|    \\/     M anipulation  |                                                 |
\*---------------------------------------------------------------------------*/
FoamFile
{
    version     2.0;
    format      binary;
    arch        "LSB;label=32;scalar=64";
    class       polyBoundaryMesh;
    location    "constant/polyMesh";
    object      boundary;
}
// * * * * * * * * * * * * * * * * * * * * * * * * * * * * * * * * * * * * * //

5
(
    Re_inlet
    {
        type            patch;
        nFaces          544;
        startFace       34696;
    }
    Re_Outlet
    {
        type            patch;
        nFaces          548;
        startFace       35240;
    }
    Re_Solid
    {
        type  mappedWall;
       sampleRegion  Solid;
       samplePatch  Re_Solid;
       sampleMode  nearestPatchFace;
       offsetMode  uniform;
       offset  (0.0 0.0 0.0);
        nFaces          288;
        startFace       35788;
    }
    Re_bottom_walls
    {
        type            wall;
        inGroups        1(wall);
        nFaces          1368;
        startFace       36076;
    }
    Re_top_walls
    {
        type            wall;
        inGroups        1(wall);
        nFaces          864;
        startFace       37444;
    }
)

// ************************************************************************* //
