/*--------------------------------*- C++ -*----------------------------------*\
  =========                 |
  \\      /  F ield         | OpenFOAM: The Open Source CFD Toolbox
   \\    /   O peration     | Website:  https://openfoam.org
    \\  /    A nd           | Version:  10
     \\/     M anipulation  |
\*---------------------------------------------------------------------------*/
FoamFile
{
    format      ascii;
    class       polyBoundaryMesh;
    location    "constant/polyMesh";
    object      boundary;
}
// * * * * * * * * * * * * * * * * * * * * * * * * * * * * * * * * * * * * * //

3
(
    Inlet
    {
        type            patch;
        nFaces          1956;
        startFace       41280;
    }
    Interface
    {
      type	mappedWall;
      sampleRegion	Solid;
      samplePatch	Interface;
      sampleMode	nearestPatchFace;
      offsetMode	uniform;
      offset	(0.0 0.0 0.0);
        inGroups        List<word> 1(wall);
        nFaces          2184;
        startFace       43236;
    }
    Outlet
    {
        type            patch;
        nFaces          1956;
        startFace       45420;
    }
)

// ************************************************************************* //
