/*--------------------------------*- C++ -*----------------------------------*\
| =========                 |                                                 |
| \\      /  F ield         | OpenFOAM: The Open Source CFD Toolbox           |
|  \\    /   O peration     | Version:  2206                                  |
|   \\  /    A nd           | Website:  www.openfoam.com                      |
|    \\/     M anipulation  |                                                 |
\*---------------------------------------------------------------------------*/
FoamFile
{
    version     2.0;
    format      binary;
    arch        "LSB;label=32;scalar=64";
    class       polyBoundaryMesh;
    location    "constant/Fluid/polyMesh";
    object      boundary;
}
// * * * * * * * * * * * * * * * * * * * * * * * * * * * * * * * * * * * * * //

8
(
    Re_inlet
    {
        type            patch;
        nFaces          4690;
        startFace       194403;
    }
    Re_Outlet
    {
        type            patch;
        nFaces          0;
        startFace       199093;
    }
    Re_Interface
    {
        type            mappedWall;
        inGroups        2(wall mappedPatch);
        nFaces          2537;
        startFace       199093;
        sampleMode      nearestPatchFace;
        sampleRegion    Solid;
        samplePatch     Re_Interface;
    }
    Re_bottom_walls
    {
        type            wall;
        inGroups        1(wall);
        nFaces          968;
        startFace       201630;
    }
    Re_top_walls
    {
        type            wall;
        inGroups        1(wall);
        nFaces          7180;
        startFace       202598;
    }
    procBoundary1to0
    {
        type            processor;
        inGroups        1(processor);
        nFaces          1799;
        startFace       209778;
        matchTolerance  0.0001;
        transform       unknown;
        myProcNo        1;
        neighbProcNo    0;
    }
    procBoundary1to2
    {
        type            processor;
        inGroups        1(processor);
        nFaces          617;
        startFace       211577;
        matchTolerance  0.0001;
        transform       unknown;
        myProcNo        1;
        neighbProcNo    2;
    }
    procBoundary1to3
    {
        type            processor;
        inGroups        1(processor);
        nFaces          660;
        startFace       212194;
        matchTolerance  0.0001;
        transform       unknown;
        myProcNo        1;
        neighbProcNo    3;
    }
)

// ************************************************************************* //
