/*--------------------------------*- C++ -*----------------------------------*\
| =========                 |                                                 |
| \\      /  F ield         | OpenFOAM: The Open Source CFD Toolbox           |
|  \\    /   O peration     | Version:  2112                                  |
|   \\  /    A nd           | Website:  www.openfoam.com                      |
|    \\/     M anipulation  |                                                 |
\*---------------------------------------------------------------------------*/
FoamFile
{
    version     2.0;
    format      binary;
    arch        "LSB;label=32;scalar=64";
    class       polyBoundaryMesh;
    location    "constant/Fluid/polyMesh";
    object      boundary;
}
// * * * * * * * * * * * * * * * * * * * * * * * * * * * * * * * * * * * * * //

6
(
    Inlet
    {
        type            patch;
        nFaces          420;
        startFace       10100;
    }
    Interface
    {
        type            mappedWall;
        inGroups        2(wall mappedPatch);
        nFaces          544;
        startFace       10520;
        sampleMode      nearestPatchFace;
        sampleRegion    Solid;
        samplePatch     Interface;
    }
    Outlet
    {
        type            patch;
        nFaces          552;
        startFace       11064;
    }
    procBoundary1to0
    {
        type            processor;
        inGroups        1(processor);
        nFaces          245;
        startFace       11616;
        matchTolerance  0.0001;
        transform       unknown;
        myProcNo        1;
        neighbProcNo    0;
    }
    procBoundary1to2
    {
        type            processor;
        inGroups        1(processor);
        nFaces          22;
        startFace       11861;
        matchTolerance  0.0001;
        transform       unknown;
        myProcNo        1;
        neighbProcNo    2;
    }
    procBoundary1to3
    {
        type            processor;
        inGroups        1(processor);
        nFaces          218;
        startFace       11883;
        matchTolerance  0.0001;
        transform       unknown;
        myProcNo        1;
        neighbProcNo    3;
    }
)

// ************************************************************************* //
