/*--------------------------------*- C++ -*----------------------------------*\
| =========                 |                                                 |
| \\      /  F ield         | OpenFOAM: The Open Source CFD Toolbox           |
|  \\    /   O peration     | Version:  2206                                  |
|   \\  /    A nd           | Website:  www.openfoam.com                      |
|    \\/     M anipulation  |                                                 |
\*---------------------------------------------------------------------------*/
FoamFile
{
    version     2.0;
    format      binary;
    arch        "LSB;label=32;scalar=64";
    class       polyBoundaryMesh;
    location    "constant/Solid/polyMesh";
    object      boundary;
}
// * * * * * * * * * * * * * * * * * * * * * * * * * * * * * * * * * * * * * //

4
(
    Re_Interface
    {
        type            mappedWall;
        inGroups        2(wall mappedPatch);
        nFaces          1247;
        startFace       80488;
        sampleMode      nearestPatchFace;
        sampleRegion    Fluid;
        samplePatch     Re_Interface;
    }
    Re_Solid
    {
        type            wall;
        inGroups        1(wall);
        nFaces          7012;
        startFace       81735;
    }
    procBoundary1to0
    {
        type            processor;
        inGroups        1(processor);
        nFaces          389;
        startFace       88747;
        matchTolerance  0.0001;
        transform       unknown;
        myProcNo        1;
        neighbProcNo    0;
    }
    procBoundary1to2
    {
        type            processor;
        inGroups        1(processor);
        nFaces          279;
        startFace       89136;
        matchTolerance  0.0001;
        transform       unknown;
        myProcNo        1;
        neighbProcNo    2;
    }
)

// ************************************************************************* //
