/*--------------------------------*- C++ -*----------------------------------*\
| =========                 |                                                 |
| \\      /  F ield         | OpenFOAM: The Open Source CFD Toolbox           |
|  \\    /   O peration     | Version:  2112                                  |
|   \\  /    A nd           | Website:  www.openfoam.com                      |
|    \\/     M anipulation  |                                                 |
\*---------------------------------------------------------------------------*/
FoamFile
{
    version     2.0;
    format      binary;
    arch        "LSB;label=32;scalar=64";
    class       polyBoundaryMesh;
    location    "constant/Solid/polyMesh";
    object      boundary;
}
// * * * * * * * * * * * * * * * * * * * * * * * * * * * * * * * * * * * * * //

4
(
    Interface
    {
        type            mappedWall;
        inGroups        2(wall mappedPatch);
        nFaces          496;
        startFace       16885;
        sampleMode      nearestPatchFace;
        sampleRegion    Fluid;
        samplePatch     Interface;
    }
    Solid
    {
        type            wall;
        inGroups        1(wall);
        nFaces          2132;
        startFace       17381;
    }
    procBoundary1to0
    {
        type            processor;
        inGroups        1(processor);
        nFaces          181;
        startFace       19513;
        matchTolerance  0.0001;
        transform       unknown;
        myProcNo        1;
        neighbProcNo    0;
    }
    procBoundary1to3
    {
        type            processor;
        inGroups        1(processor);
        nFaces          120;
        startFace       19694;
        matchTolerance  0.0001;
        transform       unknown;
        myProcNo        1;
        neighbProcNo    3;
    }
)

// ************************************************************************* //
