/*--------------------------------*- C++ -*----------------------------------*\
| =========                 |                                                 |
| \\      /  F ield         | OpenFOAM: The Open Source CFD Toolbox           |
|  \\    /   O peration     | Version:  2206                                  |
|   \\  /    A nd           | Website:  www.openfoam.com                      |
|    \\/     M anipulation  |                                                 |
\*---------------------------------------------------------------------------*/
FoamFile
{
    version     2.0;
    format      binary;
    arch        "LSB;label=32;scalar=64";
    class       polyBoundaryMesh;
    location    "constant/Fluid/polyMesh";
    object      boundary;
}
// * * * * * * * * * * * * * * * * * * * * * * * * * * * * * * * * * * * * * //

8
(
    Re_inlet
    {
        type            patch;
        nFaces          3882;
        startFace       193636;
    }
    Re_Outlet
    {
        type            patch;
        nFaces          0;
        startFace       197518;
    }
    Re_Interface
    {
        type            mappedWall;
        inGroups        2(wall mappedPatch);
        nFaces          2502;
        startFace       197518;
        sampleMode      nearestPatchFace;
        sampleRegion    Solid;
        samplePatch     Re_Interface;
    }
    Re_bottom_walls
    {
        type            wall;
        inGroups        1(wall);
        nFaces          1300;
        startFace       200020;
    }
    Re_top_walls
    {
        type            wall;
        inGroups        1(wall);
        nFaces          6940;
        startFace       201320;
    }
    procBoundary0to1
    {
        type            processor;
        inGroups        1(processor);
        nFaces          1799;
        startFace       208260;
        matchTolerance  0.0001;
        transform       unknown;
        myProcNo        0;
        neighbProcNo    1;
    }
    procBoundary0to2
    {
        type            processor;
        inGroups        1(processor);
        nFaces          710;
        startFace       210059;
        matchTolerance  0.0001;
        transform       unknown;
        myProcNo        0;
        neighbProcNo    2;
    }
    procBoundary0to3
    {
        type            processor;
        inGroups        1(processor);
        nFaces          700;
        startFace       210769;
        matchTolerance  0.0001;
        transform       unknown;
        myProcNo        0;
        neighbProcNo    3;
    }
)

// ************************************************************************* //
