/*--------------------------------*- C++ -*----------------------------------*\
| =========                 |                                                 |
| \\      /  F ield         | OpenFOAM: The Open Source CFD Toolbox           |
|  \\    /   O peration     | Version:  2206                                  |
|   \\  /    A nd           | Website:  www.openfoam.com                      |
|    \\/     M anipulation  |                                                 |
\*---------------------------------------------------------------------------*/
FoamFile
{
    version     2.0;
    format      binary;
    arch        "LSB;label=32;scalar=64";
    class       polyBoundaryMesh;
    location    "constant/Fluid/polyMesh";
    object      boundary;
}
// * * * * * * * * * * * * * * * * * * * * * * * * * * * * * * * * * * * * * //

8
(
    Re_inlet
    {
        type            patch;
        nFaces          0;
        startFace       195387;
    }
    Re_Outlet
    {
        type            patch;
        nFaces          4186;
        startFace       195387;
    }
    Re_Interface
    {
        type            mappedWall;
        inGroups        2(wall mappedPatch);
        nFaces          7;
        startFace       199573;
        sampleMode      nearestPatchFace;
        sampleRegion    Solid;
        samplePatch     Re_Interface;
    }
    Re_bottom_walls
    {
        type            wall;
        inGroups        1(wall);
        nFaces          9987;
        startFace       199580;
    }
    Re_top_walls
    {
        type            wall;
        inGroups        1(wall);
        nFaces          0;
        startFace       209567;
    }
    procBoundary3to0
    {
        type            processor;
        inGroups        1(processor);
        nFaces          700;
        startFace       209567;
        matchTolerance  0.0001;
        transform       unknown;
        myProcNo        3;
        neighbProcNo    0;
    }
    procBoundary3to1
    {
        type            processor;
        inGroups        1(processor);
        nFaces          660;
        startFace       210267;
        matchTolerance  0.0001;
        transform       unknown;
        myProcNo        3;
        neighbProcNo    1;
    }
    procBoundary3to2
    {
        type            processor;
        inGroups        1(processor);
        nFaces          1602;
        startFace       210927;
        matchTolerance  0.0001;
        transform       unknown;
        myProcNo        3;
        neighbProcNo    2;
    }
)

// ************************************************************************* //
