/*--------------------------------*- C++ -*----------------------------------*\
| =========                 |                                                 |
| \\      /  F ield         | OpenFOAM: The Open Source CFD Toolbox           |
|  \\    /   O peration     | Version:  2206                                  |
|   \\  /    A nd           | Website:  www.openfoam.com                      |
|    \\/     M anipulation  |                                                 |
\*---------------------------------------------------------------------------*/
FoamFile
{
    version     2.0;
    format      binary;
    arch        "LSB;label=32;scalar=64";
    class       volScalarField;
    location    "0/Fluid";
    object      p_rgh;
}
// * * * * * * * * * * * * * * * * * * * * * * * * * * * * * * * * * * * * * //

dimensions      [1 -1 -2 0 0 0 0];

internalField   uniform 100000;

boundaryField
{
    Re_inlet
    {
        type            zeroGradient;
    }
    Re_Outlet
    {
        type            zeroGradient;
    }
    Re_Interface
    {
        type            fixedFluxPressure;
        gradient        uniform 0;
        value           uniform 100000;
    }
    Re_bottom_walls
    {
        type            zeroGradient;
    }
    Re_top_walls
    {
        type            zeroGradient;
    }
    procBoundary1to0
    {
        type            processor;
        value           uniform 100000;
    }
    procBoundary1to2
    {
        type            processor;
        value           uniform 100000;
    }
    procBoundary1to3
    {
        type            processor;
        value           uniform 100000;
    }
}


// ************************************************************************* //
