FoamFile
{
	version	2.0;
	format	binary;
	class	volScalarField;
	location	"0/fluid";
	object	p_rgh;
	arch	"LSB;label=32;scalar=64";
}
dimensions	[1 -1 -2 0 0 0 0];
internalField	uniform 100000.0;
boundaryField
{

	Interface
	{
		type	fixedFluxPressure;
	}

	Inlet
	{
		type	fixedFluxPressure;
	}
	Outlet
	{
		type	fixedValue;
		value	uniform 100000.0;
	}
}
