FoamFile
{
	version	2.0;
	format	binary;
	class	volScalarField;
	location	"0/fluid";
	object	p_rgh;
	arch	"LSB;label=32;scalar=64";
}
dimensions	[1 -1 -2 0 0 0 0];
internalField	uniform 100000.0;
boundaryField
{
	Re_inlet
	{
		type	zeroGradient;
	}
	Re_Outlet
	{
		type	zeroGradient;
	}
	Re_top_walls
	{
		type	zeroGradient;
	}

	Re_bottom_walls
	{
		type	zeroGradient;
	}

	Re_Solid
	{
		type	fixedFluxPressure;
	}
}
