FoamFile
{
	version	2.0;
	format	binary;
	class	volScalarField;
	location	"0/fluid";
	object	Qr;
	arch	"LSB;label=32;scalar=64";
}
dimensions	[1 0 -3 0 0 0 0];
internalField	uniform 0.0;
boundaryField
{

	Interface
	{
		type	greyDiffusiveRadiationViewFactor;
		value	uniform 0.0;
		qro	uniform 0.0;
		T	T;
	}

	Inlet
	{
		type	calculated;
		value	uniform 0.0;
	}
	Outlet
	{
		type	calculated;
		value	uniform 0.0;
	}
}
