FoamFile
{
	version	2.0;
	format	binary;
	class	volScalarField;
	location	"0/fluid";
	object	T;
	arch	"LSB;label=32;scalar=64";
}
dimensions	[0 0 0 1 0 0 0];
internalField	uniform 300.0;
boundaryField
{

  Interface
	{
		type	compressible::turbulentTemperatureRadCoupledMixed;
		value	uniform 300.0;
		qrNbr	none;
		qr	qr;
		neighbourFieldName	T;
		kappaMethod	fluidThermo;
		kappa	none;
		Tnbr	T;
		thicknessLayers	();
		kappaLayers	();
	}

	Inlet
	{
		type	totalTemperature;
		T0	uniform 300.0;
		gamma	1.4;
	}
	Outlet
	{
		type	inletOutlet;
		inletValue	uniform 300.0;
	}
}
