/*--------------------------------*- C++ -*----------------------------------*\
| =========                 |                                                 |
| \\      /  F ield         | OpenFOAM: The Open Source CFD Toolbox           |
|  \\    /   O peration     | Version:  2206                                  |
|   \\  /    A nd           | Website:  www.openfoam.com                      |
|    \\/     M anipulation  |                                                 |
\*---------------------------------------------------------------------------*/
FoamFile
{
    version     2.0;
    format      binary;
    arch        "LSB;label=32;scalar=64";
    class       polyBoundaryMesh;
    location    "constant/Solid/polyMesh";
    object      boundary;
}
// * * * * * * * * * * * * * * * * * * * * * * * * * * * * * * * * * * * * * //

4
(
    Re_Interface
    {
        type            mappedWall;
        inGroups        2(wall mappedPatch);
        nFaces          1197;
        startFace       79601;
        sampleMode      nearestPatchFace;
        sampleRegion    Fluid;
        samplePatch     Re_Interface;
    }
    Re_Solid
    {
        type            wall;
        inGroups        1(wall);
        nFaces          6908;
        startFace       80798;
    }
    procBoundary0to1
    {
        type            processor;
        inGroups        1(processor);
        nFaces          389;
        startFace       87706;
        matchTolerance  0.0001;
        transform       unknown;
        myProcNo        0;
        neighbProcNo    1;
    }
    procBoundary0to3
    {
        type            processor;
        inGroups        1(processor);
        nFaces          280;
        startFace       88095;
        matchTolerance  0.0001;
        transform       unknown;
        myProcNo        0;
        neighbProcNo    3;
    }
)

// ************************************************************************* //
