/*--------------------------------*- C++ -*----------------------------------*\
| =========                 |                                                 |
| \\      /  F ield         | OpenFOAM: The Open Source CFD Toolbox           |
|  \\    /   O peration     | Version:  2112                                  |
|   \\  /    A nd           | Website:  www.openfoam.com                      |
|    \\/     M anipulation  |                                                 |
\*---------------------------------------------------------------------------*/
FoamFile
{
    version     2.0;
    format      binary;
    arch        "LSB;label=32;scalar=64";
    class       polyBoundaryMesh;
    location    "constant/Solid/polyMesh";
    object      boundary;
}
// * * * * * * * * * * * * * * * * * * * * * * * * * * * * * * * * * * * * * //

4
(
    Interface
    {
        type            mappedWall;
        inGroups        2(wall mappedPatch);
        nFaces          640;
        startFace       16803;
        sampleMode      nearestPatchFace;
        sampleRegion    Fluid;
        samplePatch     Interface;
    }
    Solid
    {
        type            wall;
        inGroups        1(wall);
        nFaces          2068;
        startFace       17443;
    }
    procBoundary0to1
    {
        type            processor;
        inGroups        1(processor);
        nFaces          181;
        startFace       19511;
        matchTolerance  0.0001;
        transform       unknown;
        myProcNo        0;
        neighbProcNo    1;
    }
    procBoundary0to2
    {
        type            processor;
        inGroups        1(processor);
        nFaces          136;
        startFace       19692;
        matchTolerance  0.0001;
        transform       unknown;
        myProcNo        0;
        neighbProcNo    2;
    }
)

// ************************************************************************* //
