/*--------------------------------*- C++ -*----------------------------------*\
| =========                 |                                                 |
| \\      /  F ield         | OpenFOAM: The Open Source CFD Toolbox           |
|  \\    /   O peration     | Version:  2112                                  |
|   \\  /    A nd           | Website:  www.openfoam.com                      |
|    \\/     M anipulation  |                                                 |
\*---------------------------------------------------------------------------*/
FoamFile
{
    version     2.0;
    format      binary;
    arch        "LSB;label=32;scalar=64";
    class       polyBoundaryMesh;
    location    "constant/Solid/polyMesh";
    object      boundary;
}
// * * * * * * * * * * * * * * * * * * * * * * * * * * * * * * * * * * * * * //

4
(
    Interface
    {
        type            mappedWall;
        inGroups        2(wall mappedPatch);
        nFaces          496;
        startFace       16611;
        sampleMode      nearestPatchFace;
        sampleRegion    Fluid;
        samplePatch     Interface;
    }
    Solid
    {
        type            wall;
        inGroups        1(wall);
        nFaces          2064;
        startFace       17107;
    }
    procBoundary2to0
    {
        type            processor;
        inGroups        1(processor);
        nFaces          136;
        startFace       19171;
        matchTolerance  0.0001;
        transform       unknown;
        myProcNo        2;
        neighbProcNo    0;
    }
    procBoundary2to3
    {
        type            processor;
        inGroups        1(processor);
        nFaces          181;
        startFace       19307;
        matchTolerance  0.0001;
        transform       unknown;
        myProcNo        2;
        neighbProcNo    3;
    }
)

// ************************************************************************* //
