FoamFile
{
	class	dictionary;
	format	ascii;
	location	system;
	object	controlDict;
	version	2.0;
}
adjustTimeStep	true;
application	chtMultiRegionFoam;
deltaT	0.2;
endTime	200;
maxCo	2;
maxDeltaT	0.2;
purgeWrite	0;
startFrom	latestTime;
startTime	0;
stopAt	endTime;
timeFormat	general;
timePrecision	6;
writeControl	adjustableRunTime;
writeInterval	5;
writePrecision	7;
runTimeModifiable	true;
compression	uncompressed;
writeFormat	binary;
libs	("libfvMotionSolvers.so" "libturbulenceModels.so" "libturbulenceModelSchemes.so");
functions
{
	writeExtraFieldsInFluid
	{
		libs	("libutilityFunctionObjects.so");
		objects	(rho K);
		type	writeObjects;
		writeOption	anyWrite;
		enabled	true;
		log	true;
		writeControl	writeTime;
		region	Fluid;
	}
}
