/*--------------------------------*- C++ -*----------------------------------*\
| =========                 |                                                 |
| \\      /  F ield         | OpenFOAM: The Open Source CFD Toolbox           |
|  \\    /   O peration     | Version:  2112                                  |
|   \\  /    A nd           | Website:  www.openfoam.com                      |
|    \\/     M anipulation  |                                                 |
\*---------------------------------------------------------------------------*/
FoamFile
{
    version     2.0;
    format      binary;
    arch        "LSB;label=32;scalar=64";
    class       polyBoundaryMesh;
    location    "constant/Fluid/polyMesh";
    object      boundary;
}
// * * * * * * * * * * * * * * * * * * * * * * * * * * * * * * * * * * * * * //

6
(
    Inlet
    {
        type            patch;
        nFaces          454;
        startFace       10061;
    }
    Interface
    {
        type            mappedWall;
        inGroups        2(wall mappedPatch);
        nFaces          580;
        startFace       10515;
        sampleMode      nearestPatchFace;
        sampleRegion    Solid;
        samplePatch     Interface;
    }
    Outlet
    {
        type            patch;
        nFaces          500;
        startFace       11095;
    }
    procBoundary2to0
    {
        type            processor;
        inGroups        1(processor);
        nFaces          199;
        startFace       11595;
        matchTolerance  0.0001;
        transform       unknown;
        myProcNo        2;
        neighbProcNo    0;
    }
    procBoundary2to1
    {
        type            processor;
        inGroups        1(processor);
        nFaces          22;
        startFace       11794;
        matchTolerance  0.0001;
        transform       unknown;
        myProcNo        2;
        neighbProcNo    1;
    }
    procBoundary2to3
    {
        type            processor;
        inGroups        1(processor);
        nFaces          213;
        startFace       11816;
        matchTolerance  0.0001;
        transform       unknown;
        myProcNo        2;
        neighbProcNo    3;
    }
)

// ************************************************************************* //
