/*--------------------------------*- C++ -*----------------------------------*\
| =========                 |                                                 |
| \\      /  F ield         | OpenFOAM: The Open Source CFD Toolbox           |
|  \\    /   O peration     | Version:  2206                                  |
|   \\  /    A nd           | Website:  www.openfoam.com                      |
|    \\/     M anipulation  |                                                 |
\*---------------------------------------------------------------------------*/
FoamFile
{
    version     2.0;
    format      binary;
    arch        "LSB;label=32;scalar=64";
    class       polyBoundaryMesh;
    location    "constant/Fluid/polyMesh";
    object      boundary;
}
// * * * * * * * * * * * * * * * * * * * * * * * * * * * * * * * * * * * * * //

8
(
    Re_inlet
    {
        type            patch;
        nFaces          0;
        startFace       195638;
    }
    Re_Outlet
    {
        type            patch;
        nFaces          4308;
        startFace       195638;
    }
    Re_Interface
    {
        type            mappedWall;
        inGroups        2(wall mappedPatch);
        nFaces          54;
        startFace       199946;
        sampleMode      nearestPatchFace;
        sampleRegion    Solid;
        samplePatch     Re_Interface;
    }
    Re_bottom_walls
    {
        type            wall;
        inGroups        1(wall);
        nFaces          9694;
        startFace       200000;
    }
    Re_top_walls
    {
        type            wall;
        inGroups        1(wall);
        nFaces          0;
        startFace       209694;
    }
    procBoundary2to0
    {
        type            processor;
        inGroups        1(processor);
        nFaces          710;
        startFace       209694;
        matchTolerance  0.0001;
        transform       unknown;
        myProcNo        2;
        neighbProcNo    0;
    }
    procBoundary2to1
    {
        type            processor;
        inGroups        1(processor);
        nFaces          617;
        startFace       210404;
        matchTolerance  0.0001;
        transform       unknown;
        myProcNo        2;
        neighbProcNo    1;
    }
    procBoundary2to3
    {
        type            processor;
        inGroups        1(processor);
        nFaces          1602;
        startFace       211021;
        matchTolerance  0.0001;
        transform       unknown;
        myProcNo        2;
        neighbProcNo    3;
    }
)

// ************************************************************************* //
