/*--------------------------------*- C++ -*----------------------------------*\
| =========                 |                                                 |
| \\      /  F ield         | OpenFOAM: The Open Source CFD Toolbox           |
|  \\    /   O peration     | Version:  2112                                  |
|   \\  /    A nd           | Website:  www.openfoam.com                      |
|    \\/     M anipulation  |                                                 |
\*---------------------------------------------------------------------------*/
FoamFile
{
    version     2.0;
    format      binary;
    arch        "LSB;label=32;scalar=64";
    class       volScalarField;
    location    "0/Fluid";
    object      p;
}
// * * * * * * * * * * * * * * * * * * * * * * * * * * * * * * * * * * * * * //

dimensions      [1 -1 -2 0 0 0 0];

internalField   uniform 100000;

boundaryField
{
    Inlet
    {
        type            calculated;
        value           uniform 100000;
    }
    Interface
    {
        type            calculated;
        value           uniform 100000;
    }
    Outlet
    {
        type            calculated;
        value           uniform 100000;
    }
    procBoundary0to1
    {
        type            processor;
        value           uniform 100000;
    }
    procBoundary0to2
    {
        type            processor;
        value           uniform 100000;
    }
    procBoundary0to3
    {
        type            processor;
        value           uniform 100000;
    }
}


// ************************************************************************* //
