/*--------------------------------*- C++ -*----------------------------------*\
| =========                 |                                                 |
| \\      /  F ield         | OpenFOAM: The Open Source CFD Toolbox           |
|  \\    /   O peration     | Version:  2206                                  |
|   \\  /    A nd           | Website:  www.openfoam.com                      |
|    \\/     M anipulation  |                                                 |
\*---------------------------------------------------------------------------*/
FoamFile
{
    version     2.0;
    format      binary;
    arch        "LSB;label=32;scalar=64";
    class       volScalarField;
    location    "0/Solid";
    object      T;
}
// * * * * * * * * * * * * * * * * * * * * * * * * * * * * * * * * * * * * * //

dimensions      [0 0 0 1 0 0 0];

internalField   uniform 400;

boundaryField
{
    Re_Interface
    {
        type            compressible::turbulentTemperatureCoupledBaffleMixed;
        kappaMethod     solidThermo;
        kappa           none;
        neighbourFieldName T;
        Tnbr            T;
        value           uniform 400;
    }
    Re_Solid
    {
        type            compressible::turbulentTemperatureCoupledBaffleMixed;
        kappaMethod     solidThermo;
        kappa           none;
        neighbourFieldName T;
        Tnbr            T;
        value           uniform 400;
    }
    procBoundary2to1
    {
        type            processor;
        value           uniform 400;
    }
    procBoundary2to3
    {
        type            processor;
        value           uniform 400;
    }
}


// ************************************************************************* //
